Version 4
SHEET 1 880 680
WIRE 304 -112 32 -112
WIRE 416 -112 304 -112
WIRE 496 -112 416 -112
WIRE 656 -112 576 -112
WIRE 800 -112 656 -112
WIRE 800 -96 800 -112
WIRE 32 -80 32 -112
WIRE 304 -80 304 -112
WIRE 416 -80 416 -112
WIRE 656 -80 656 -112
WIRE 416 0 416 -16
WIRE 656 0 656 -16
WIRE 800 0 800 -16
WIRE 32 48 32 0
WIRE 80 48 32 48
WIRE 192 48 160 48
WIRE 304 48 304 0
WIRE 304 48 256 48
WIRE -416 160 -496 160
WIRE -320 160 -336 160
WIRE -288 160 -320 160
WIRE -128 160 -208 160
WIRE -96 160 -128 160
WIRE 32 160 32 48
WIRE 32 160 -32 160
WIRE 128 160 32 160
WIRE 304 160 304 48
WIRE 304 160 224 160
WIRE 320 160 304 160
WIRE 400 160 384 160
WIRE 432 160 400 160
WIRE 592 160 512 160
WIRE 688 160 592 160
WIRE -496 192 -496 160
WIRE -128 192 -128 160
WIRE 400 192 400 160
WIRE 688 192 688 160
WIRE -496 304 -496 272
WIRE -128 304 -128 256
WIRE 160 320 160 224
WIRE 192 320 192 224
WIRE 400 320 400 256
WIRE 688 320 688 272
FLAG 160 320 0
FLAG 192 320 0
FLAG -128 304 0
FLAG 400 320 0
FLAG 416 0 0
FLAG 656 0 0
FLAG 688 320 0
FLAG -496 304 0
FLAG 800 0 0
FLAG 592 160 o
FLAG -320 160 i
SYMBOL MyComponents\\BFP460 176 176 R0
SYMATTR InstName U1
SYMBOL res 176 32 R90
WINDOW 0 0 56 VBottom 2
WINDOW 3 32 56 VTop 2
SYMATTR InstName R1
SYMATTR Value 2k
SYMBOL cap 256 32 R90
WINDOW 0 0 32 VBottom 2
WINDOW 3 32 32 VTop 2
SYMATTR InstName C1
SYMATTR Value 330p
SYMBOL cap 384 144 R90
WINDOW 0 0 32 VBottom 2
WINDOW 3 32 32 VTop 2
SYMATTR InstName C2
SYMATTR Value 330p
SYMBOL cap -32 144 R90
WINDOW 0 0 32 VBottom 2
WINDOW 3 32 32 VTop 2
SYMATTR InstName C3
SYMATTR Value 330p
SYMBOL cap -112 256 R180
WINDOW 0 24 56 Left 2
WINDOW 3 24 8 Left 2
SYMATTR InstName C4
SYMATTR Value 18p
SYMBOL ind 416 176 R270
WINDOW 0 32 56 VTop 2
WINDOW 3 5 56 VBottom 2
SYMATTR InstName L1
SYMATTR Value 47n
SYMBOL ind -304 176 R270
WINDOW 0 32 56 VTop 2
WINDOW 3 5 56 VBottom 2
SYMATTR InstName L2
SYMATTR Value 100n
SYMBOL res 16 -96 R0
SYMATTR InstName R2
SYMATTR Value 47k
SYMBOL res 288 -96 R0
SYMATTR InstName R3
SYMATTR Value 68
SYMBOL res 592 -128 R90
WINDOW 0 0 56 VBottom 2
WINDOW 3 32 56 VTop 2
SYMATTR InstName R4
SYMATTR Value 68
SYMBOL cap 400 -80 R0
SYMATTR InstName C5
SYMATTR Value 47n
SYMBOL cap 640 -80 R0
SYMATTR InstName C6
SYMATTR Value 1n
SYMBOL cap 384 192 R0
SYMATTR InstName C7
SYMATTR Value 12p
SYMBOL res 672 176 R0
SYMATTR InstName R5
SYMATTR Value 50
SYMBOL res -320 144 R90
WINDOW 0 0 56 VBottom 2
WINDOW 3 32 56 VTop 2
SYMATTR InstName R6
SYMATTR Value 50
SYMBOL voltage -496 176 R0
WINDOW 123 24 124 Left 2
WINDOW 39 0 0 Left 0
SYMATTR InstName V1
SYMATTR Value SINE()
SYMATTR Value2 AC 10u
SYMBOL voltage 800 -112 R0
WINDOW 123 0 0 Left 0
WINDOW 39 0 0 Left 0
SYMATTR InstName V2
SYMATTR Value 2.8
TEXT -530 344 Left 2 !.ac dec 1000 80e6 150e6
