Version 4
SHEET 1 880 680
WIRE -16 96 -80 96
WIRE 176 96 64 96
WIRE 320 96 176 96
WIRE 416 96 320 96
WIRE 528 96 416 96
WIRE 320 112 320 96
WIRE 528 112 528 96
WIRE -80 128 -80 96
WIRE 416 128 416 96
WIRE 176 144 176 96
WIRE -80 256 -80 208
WIRE 176 256 176 208
WIRE 320 256 320 192
WIRE 416 256 416 192
WIRE 528 256 528 192
FLAG -80 256 0
FLAG 176 256 0
FLAG 416 256 0
FLAG 528 256 0
FLAG 320 256 0
SYMBOL ind 304 96 R0
SYMATTR InstName L1
SYMBOL cap 400 128 R0
SYMATTR InstName C1
SYMBOL ind -32 112 R270
WINDOW 0 32 56 VTop 2
WINDOW 3 5 56 VBottom 2
SYMATTR InstName L2
SYMBOL voltage -80 112 R0
SYMATTR InstName V1
SYMBOL AutoGenerated\\MBD1057 176 176 R90
SYMATTR InstName U1
SYMBOL res 512 96 R0
SYMATTR InstName R1
