.SUBCKT MBD1057 1 2
B1 1 2 I=0.1414*V(1,2) - 0.4302*pow(V(1,2),2)+0.3343*pow(V(1,2),3)
C1 1 2 0.3E-12
.ENDS
