Version 4
SHEET 1 1792 1008
WIRE 432 144 352 144
WIRE 688 144 432 144
WIRE 944 144 688 144
WIRE 432 160 432 144
WIRE 688 192 688 144
WIRE 352 272 352 144
WIRE 432 272 432 240
WIRE 944 272 944 144
WIRE 560 320 512 320
WIRE 688 320 688 272
WIRE 688 320 624 320
WIRE 784 320 688 320
WIRE 880 320 784 320
WIRE 784 352 784 320
WIRE 512 368 512 320
WIRE 688 400 688 320
WIRE 784 432 784 416
WIRE 944 432 944 368
WIRE 944 432 784 432
WIRE 1120 432 944 432
WIRE 944 448 944 432
WIRE 112 464 48 464
WIRE 208 464 192 464
WIRE 352 464 352 352
WIRE 352 464 272 464
WIRE 512 464 512 448
WIRE 512 464 352 464
WIRE 352 480 352 464
WIRE 512 480 512 464
WIRE 784 480 784 432
WIRE 48 496 48 464
WIRE 48 592 48 576
WIRE 352 592 352 560
WIRE 512 592 512 576
WIRE 688 592 688 480
WIRE 784 592 784 544
WIRE 944 592 944 528
FLAG 432 272 0
FLAG 48 592 0
FLAG 512 592 0
FLAG 688 592 0
FLAG 784 592 0
FLAG 944 592 0
FLAG 352 592 0
SYMBOL cap 768 352 R0
SYMATTR InstName C1
SYMATTR Value 50p
SYMBOL cap 768 480 R0
SYMATTR InstName C2
SYMATTR Value 50p
SYMBOL ind 496 352 R0
SYMATTR InstName L1
SYMBOL res 928 432 R0
SYMATTR InstName R1
SYMATTR Value 25k
SYMBOL res 672 176 R0
SYMATTR InstName R2
SYMBOL npn 880 272 R0
SYMATTR InstName Q1
SYMATTR Value MRF9411
SYMBOL voltage 432 144 R0
SYMATTR InstName VCC
SYMATTR Value 5V
SYMBOL AutoGenerated\\SMVDIODE 512 528 R270
WINDOW 3 6 57 Bottom 2
SYMATTR InstName U1
SYMATTR SpiceLine Cjo={Cjo1} M={M1} Vj={Vj1} R={Rs1} Ls={Ls1} Cp={Cp1}
SYMBOL cap 624 304 R90
WINDOW 0 0 32 VBottom 2
WINDOW 3 32 32 VTop 2
SYMATTR InstName Ca2
SYMBOL res 336 464 R0
SYMATTR InstName Rd2
SYMATTR Value 10K
SYMBOL voltage 48 480 R0
WINDOW 123 0 0 Left 0
WINDOW 39 0 0 Left 0
WINDOW 0 35 65 Left 2
SYMATTR InstName Vmod
SYMATTR Value SINE(0 Vm fm)
SYMBOL res 208 448 R90
WINDOW 0 0 56 VBottom 2
WINDOW 3 32 56 VTop 2
SYMATTR InstName R6
SYMATTR Value 5k
SYMBOL res 336 256 R0
SYMATTR InstName Rd1
SYMATTR Value 10K
SYMBOL res 672 384 R0
SYMATTR InstName R7
SYMBOL cap 272 448 R90
WINDOW 0 0 32 VBottom 2
WINDOW 3 32 32 VTop 2
SYMATTR InstName Ca1
