Version 4
SHEET 1 1792 1008
WIRE 848 144 128 144
WIRE 944 144 848 144
WIRE 1008 144 944 144
WIRE 1056 144 1008 144
WIRE 1056 160 1056 144
WIRE 848 192 848 144
WIRE 944 272 944 144
WIRE 1056 272 1056 240
WIRE 128 288 128 144
WIRE 512 288 384 288
WIRE 544 288 512 288
WIRE 656 288 608 288
WIRE 704 288 656 288
WIRE 656 320 656 288
WIRE 704 320 704 288
WIRE 752 320 704 320
WIRE 848 320 848 272
WIRE 848 320 752 320
WIRE 880 320 848 320
WIRE 384 336 384 288
WIRE 1728 352 1728 336
WIRE 512 400 512 288
WIRE 656 400 656 384
WIRE 752 400 656 400
WIRE 944 400 944 368
WIRE 944 400 752 400
WIRE -96 416 -128 416
WIRE 128 416 128 368
WIRE 128 416 -16 416
WIRE 160 416 128 416
WIRE 384 416 384 400
WIRE 384 416 240 416
WIRE -128 448 -128 416
WIRE 128 448 128 416
WIRE 384 448 384 416
WIRE 656 448 656 400
WIRE 752 448 752 400
WIRE 944 448 944 400
WIRE 1728 480 1728 448
WIRE 1152 512 1040 512
WIRE -128 544 -128 528
WIRE 128 544 128 528
WIRE 384 544 384 512
WIRE 384 544 128 544
WIRE 512 544 512 480
WIRE 512 544 384 544
WIRE 656 544 656 512
WIRE 656 544 512 544
WIRE 752 544 752 528
WIRE 752 544 656 544
WIRE 1040 544 1040 512
WIRE 848 560 848 320
WIRE 992 560 848 560
WIRE 752 576 752 544
WIRE 1728 592 1728 576
WIRE 752 672 672 672
WIRE 944 672 944 528
WIRE 944 672 752 672
WIRE 992 672 992 608
WIRE 992 672 944 672
WIRE 1040 672 1040 624
WIRE 1040 672 992 672
WIRE 672 688 672 672
FLAG 752 320 6
IOPIN 752 320 In
FLAG 752 400 7
IOPIN 752 400 In
FLAG 1056 272 0
FLAG 752 576 0
FLAG 1152 512 out
IOPIN 1152 512 Out
FLAG 752 672 3
IOPIN 752 672 In
FLAG 672 688 0
FLAG 1008 144 8
IOPIN 1008 144 In
FLAG -128 544 0
SYMBOL cap 640 320 R0
SYMATTR InstName C1
SYMATTR Value 50p
SYMBOL cap 640 448 R0
SYMATTR InstName C2
SYMATTR Value 50p
SYMBOL ind 496 384 R0
SYMATTR InstName L1
SYMATTR Value 1160n
SYMBOL res 928 432 R0
SYMATTR InstName R1
SYMATTR Value 25k
SYMBOL res 832 176 R0
SYMATTR InstName R2
SYMATTR Value 18k
SYMBOL e 1040 528 R0
SYMATTR InstName E1
SYMATTR Value .4
SYMBOL npn 880 272 R0
SYMATTR InstName Q1
SYMATTR Value MRF9411
SYMBOL voltage 1056 144 R0
SYMATTR InstName V1
SYMATTR Value 5
SYMBOL res 736 432 R0
SYMATTR InstName Re
SYMATTR Value 22k
SYMBOL AutoGenerated\\SMVDIODE 1728 528 R270
SYMATTR InstName U1
SYMATTR SpiceLine Cjo={Cjo1} M={M1} Vj={Vj1} R={Rs1} Ls={Ls1} Cp={Cp1}
SYMBOL cap 608 272 R90
WINDOW 0 0 32 VBottom 2
WINDOW 3 32 32 VTop 2
SYMATTR InstName C3
SYMATTR Value 100n
SYMBOL AutoGenerated\\SMVDIODE 1728 400 R90
SYMATTR InstName U2
SYMATTR SpiceLine Cjo={Cjo1} M={M1} Vj={Vj1} R={Rs1} Ls={Ls1} Cp={Cp1}
SYMBOL res 256 400 R90
WINDOW 0 0 56 VBottom 2
WINDOW 3 32 56 VTop 2
SYMATTR InstName R3
SYMATTR Value 100k
SYMBOL res 144 544 R180
WINDOW 0 36 76 Left 2
WINDOW 3 36 40 Left 2
SYMATTR InstName R4
SYMATTR Value 10k
SYMBOL res 144 384 R180
WINDOW 0 36 76 Left 2
WINDOW 3 36 40 Left 2
SYMATTR InstName R5
SYMATTR Value 10k
SYMBOL voltage -128 432 R0
WINDOW 123 0 0 Left 0
WINDOW 39 0 0 Left 0
SYMATTR InstName V2
SYMATTR Value SINE(0 0.2 1e3)
SYMBOL res 0 400 R90
WINDOW 0 0 56 VBottom 2
WINDOW 3 32 56 VTop 2
SYMATTR InstName R6
SYMATTR Value 5k
SYMBOL cap 368 336 R0
SYMATTR InstName C4
SYMATTR Value 10p
SYMBOL cap 368 448 R0
SYMATTR InstName C5
SYMATTR Value 10p
TEXT 1008 440 Left 0 ;Osc buffer/\nlevel shifter
TEXT 1248 168 Left 0 !*Low Noise, High-Frequency Transistor\n*MOT Si 250mW  10V  50mA 8GHz \n.MODEL MRF9411 NPN \n+ IS = 4.558E-16 \n+ BF = 136 \n+ NF = 0.9979 \n+ VAF = 21 \n+ IKF = 0.7 \n+ ISE = 3.087E-14 \n+ NE = 2 \n+ BR = 42 \n+ NR = 0.993 \n+ VAR = 2.9 \n+ IKR = 0.016 \n+ ISC = 3.411E-17 \n+ NC = 1.087 \n+ RB = 7 \n+ IRB = 8E-05 \n+ RBM = 8 \n+ RE = 0.45 \n+ RC = 8 \n+ XTB = 0 \n+ EG = 1.11 \n+ XTI = 3 \n+ CJE = 8.6E-13 \n+ VJE = 0.94 \n+ MJE = 0.42 \n+ CJC = 4.3E-13 \n+ VJC = 0.35 \n+ MJC = 0.21 \n+ XCJC = 0.44 \n+ TF = 1.3E-11 \n+ XTF = 400 \n+ VTF = 6 \n+ ITF = 1.5 \n+ PTF = 47 \n+ TR = 1E-09 \n+ FC = 0.98
TEXT 368 736 Left 2 !.tran 0 11m 1m 100n uic
TEXT 1376 272 Left 1 !.param Cjo1  =  1.11e-12\n.param M1    =  0.50\n.param Vj1   =  0.86\n.param Ls1   =  1.40e-09\n.param Rs1    =  3.150\n.param Cp1   =  1.30e-13
