Version 4
SHEET 1 880 800
WIRE -288 -496 -560 -496
WIRE -160 -496 -288 -496
WIRE -288 -480 -288 -496
WIRE -560 -448 -560 -496
WIRE -288 -384 -288 -400
WIRE -560 -336 -560 -368
WIRE -160 -336 -160 -496
WIRE -448 -288 -560 -288
WIRE -352 -288 -384 -288
WIRE -288 -288 -288 -304
WIRE -288 -288 -352 -288
WIRE -224 -288 -288 -288
WIRE -560 -256 -560 -288
WIRE -288 -224 -288 -288
WIRE -352 -208 -352 -288
WIRE 48 -176 0 -176
WIRE 384 -176 176 -176
WIRE -560 -160 -560 -176
WIRE -560 -160 -608 -160
WIRE -288 -144 -288 -160
WIRE -160 -144 -160 -240
WIRE -160 -144 -288 -144
WIRE 48 -144 48 -176
WIRE 176 -144 176 -176
WIRE -560 -112 -560 -160
WIRE -288 -96 -288 -144
WIRE -160 -96 -160 -144
WIRE 48 -32 48 -64
WIRE 176 -32 176 -64
WIRE 176 -32 48 -32
WIRE -560 0 -560 -16
WIRE -288 0 -288 -32
WIRE -288 0 -560 0
WIRE -160 0 -160 -16
WIRE -160 0 -288 0
WIRE 176 0 176 -32
WIRE -160 16 -160 0
FLAG -608 -160 VD
IOPIN -608 -160 Out
FLAG -560 -336 0
FLAG -160 16 0
FLAG -352 -208 OL
IOPIN -352 -208 In
FLAG 0 -176 B
IOPIN 0 -176 In
FLAG 384 -176 C
IOPIN 384 -176 In
FLAG 176 0 E
IOPIN 176 0 In
SYMBOL cap -304 -224 R0
SYMATTR InstName C1
SYMATTR Value 470pF
SYMBOL cap -304 -96 R0
SYMATTR InstName C2
SYMATTR Value 470pF
SYMBOL ind -576 -272 R0
SYMATTR InstName L8
SYMATTR Value 800nHy
SYMBOL AutoGenerated\\SMVDIODE -560 -64 R270
SYMATTR InstName U2
SYMBOL npn -224 -336 R0
SYMATTR InstName Q1
SYMBOL res -176 -112 R0
SYMATTR InstName R1
SYMATTR Value 25K
SYMBOL res -304 -496 R0
SYMATTR InstName R2
SYMATTR Value 18K
SYMBOL voltage -560 -464 R0
SYMATTR InstName V1
SYMATTR Value 6V
SYMBOL cap -384 -304 R90
WINDOW 0 0 32 VBottom 2
WINDOW 3 32 32 VTop 2
SYMATTR InstName Ca1
SYMATTR Value 100nF
SYMBOL res 32 -160 R0
SYMATTR InstName r11
SYMATTR Value 20k
SYMBOL current 176 -144 R0
WINDOW 123 0 0 Left 0
WINDOW 39 0 0 Left 0
SYMATTR InstName y21
SYMATTR Value gm.VBE
SYMBOL ind -304 -400 R0
SYMATTR InstName Lch
SYMATTR Value 10µ
TEXT -104 -320 Left 2 ;Beta = 100
TEXT -96 -280 Left 2 ;VBE = 0.7V
TEXT -104 -368 Left 2 ;fOL = 16 a 18 MHz
