Version 4
SHEET 1 1016 680
WIRE 64 0 -64 0
WIRE 176 0 64 0
WIRE 416 0 176 0
WIRE 512 0 416 0
WIRE -64 48 -64 0
WIRE 848 48 768 48
WIRE 944 48 944 16
WIRE 944 48 848 48
WIRE 944 64 944 48
WIRE 416 80 416 0
WIRE 768 80 768 48
WIRE 848 80 848 48
WIRE 176 160 176 0
WIRE 768 176 768 144
WIRE 848 176 848 144
WIRE 944 176 944 144
WIRE -416 192 -464 192
WIRE -304 192 -352 192
WIRE -208 192 -304 192
WIRE -160 192 -208 192
WIRE -64 192 -64 128
WIRE -64 192 -96 192
WIRE 32 192 -64 192
WIRE 112 192 32 192
WIRE 512 208 512 0
WIRE -64 240 -64 192
WIRE 32 240 32 192
WIRE 176 240 176 224
WIRE 416 240 416 160
WIRE 416 240 176 240
WIRE 448 240 416 240
WIRE -304 256 -304 192
WIRE -208 256 -208 192
WIRE -464 288 -464 192
WIRE 416 320 416 240
WIRE 32 336 32 304
WIRE 176 336 176 240
WIRE 176 336 32 336
WIRE 512 336 512 272
WIRE 688 336 512 336
WIRE 832 336 752 336
WIRE 32 368 32 336
WIRE 176 368 176 336
WIRE 512 368 512 336
WIRE 832 368 832 336
WIRE -464 464 -464 352
WIRE -304 464 -304 320
WIRE -208 464 -208 336
WIRE -64 464 -64 320
WIRE 32 464 32 432
WIRE 176 464 176 448
WIRE 416 464 416 400
WIRE 512 464 512 448
WIRE 832 464 832 448
FLAG 32 464 0
FLAG -64 464 0
FLAG 176 464 0
FLAG 944 176 0
FLAG 944 16 VCC
FLAG 848 176 0
FLAG 64 0 VCC
FLAG -208 464 0
FLAG -304 464 0
FLAG 768 176 0
FLAG -464 464 0
FLAG 512 464 0
FLAG 832 336 RFOUT
FLAG 832 464 0
FLAG 416 464 0
DATAFLAG 272 240 ""
DATAFLAG 608 336 ""
SYMBOL res -80 32 R0
SYMATTR InstName R1
SYMATTR Value 1.5k
SYMBOL res -80 224 R0
SYMATTR InstName R2
SYMATTR Value 2.7K
SYMBOL cap 16 240 R0
SYMATTR InstName C7
SYMATTR Value 1p
SYMBOL cap 16 368 R0
SYMATTR InstName C8
SYMATTR Value 3p
SYMBOL res 160 352 R0
SYMATTR InstName R4
SYMATTR Value 220
SYMBOL cap 752 320 R90
WINDOW 0 0 32 VBottom 2
WINDOW 3 32 32 VTop 2
SYMATTR InstName C11
SYMATTR Value 100p
SYMBOL voltage 944 48 R0
WINDOW 123 0 0 Left 2
WINDOW 39 0 0 Left 2
SYMATTR InstName V1
SYMATTR Value 5
SYMBOL cap 832 80 R0
SYMATTR InstName C1
SYMATTR Value 47n
SYMBOL cap -96 176 R90
WINDOW 0 0 32 VBottom 2
WINDOW 3 32 32 VTop 2
SYMATTR InstName C5
SYMATTR Value 100p
SYMBOL ind -224 240 R0
SYMATTR InstName L3
SYMATTR Value 2.4n
SYMBOL cap -320 256 R0
SYMATTR InstName C4
SYMATTR Value 0.6p
SYMBOL cap -352 176 R90
WINDOW 0 0 32 VBottom 2
WINDOW 3 32 32 VTop 2
SYMATTR InstName C3
SYMATTR Value 4.3p
SYMBOL cap 752 80 R0
SYMATTR InstName C6
SYMATTR Value 47p
SYMBOL cap -480 288 R0
SYMATTR InstName C9
SYMATTR Value 8p
SYMBOL res 496 352 R0
SYMATTR InstName R3
SYMATTR Value 80
SYMBOL res 816 352 R0
SYMATTR InstName RL
SYMATTR Value 50
SYMBOL AutoGenerated\\BFR92A 144 192 R0
SYMATTR InstName U1
SYMBOL AutoGenerated\\BFR92A 480 240 R0
SYMATTR InstName U2
TEXT -648 544 Left 2 !.tran 1u
