Version 4
SHEET 1 880 800
WIRE -64 -704 -80 -704
WIRE 16 -704 -64 -704
WIRE 192 -704 112 -704
WIRE 352 -704 304 -704
WIRE -64 -688 -64 -704
WIRE 16 -688 16 -704
WIRE 112 -688 112 -704
WIRE 304 -688 304 -704
WIRE -64 -592 -64 -624
WIRE -64 -592 -80 -592
WIRE 16 -592 16 -608
WIRE 16 -592 -64 -592
WIRE 112 -592 112 -608
WIRE 192 -592 112 -592
WIRE 304 -592 304 -608
WIRE 352 -592 304 -592
WIRE 304 -576 304 -592
WIRE -112 -336 -112 -384
WIRE -1024 -288 -1120 -288
WIRE -912 -288 -1024 -288
WIRE -896 -288 -912 -288
WIRE -800 -288 -832 -288
WIRE -912 -256 -912 -288
WIRE -432 -256 -560 -256
WIRE -288 -256 -432 -256
WIRE -272 -256 -288 -256
WIRE -1120 -240 -1120 -288
WIRE -240 -240 -272 -256
WIRE 320 -240 304 -240
WIRE -560 -224 -560 -256
WIRE -432 -224 -432 -256
WIRE -288 -224 -288 -256
WIRE -912 -160 -912 -192
WIRE -816 -160 -912 -160
WIRE -560 -160 -608 -160
WIRE 320 -160 304 -160
WIRE -1232 -144 -1248 -144
WIRE -1120 -144 -1120 -160
WIRE -1120 -144 -1168 -144
WIRE -432 -144 -432 -160
WIRE -288 -144 -288 -160
WIRE -240 -144 -288 -144
WIRE -912 -112 -912 -160
WIRE -560 -112 -560 -160
WIRE -1120 -96 -1120 -144
WIRE -288 -96 -288 -144
WIRE -1328 -80 -1328 -144
WIRE -1024 -80 -1024 -288
WIRE 96 -16 96 -32
WIRE 176 -16 176 -32
WIRE -560 0 -560 -16
WIRE -432 0 -432 -64
WIRE -432 0 -560 0
WIRE -288 0 -288 -32
WIRE -288 0 -432 0
WIRE -112 0 -112 -32
WIRE -112 0 -288 0
WIRE -1328 32 -1328 0
WIRE -1120 32 -1120 -16
WIRE -1120 32 -1328 32
WIRE -1024 32 -1024 -16
WIRE -1024 32 -1120 32
WIRE -912 32 -912 -16
WIRE -912 32 -1024 32
WIRE -896 32 -912 32
WIRE -800 32 -832 32
WIRE -560 32 -560 0
WIRE -912 64 -912 32
WIRE -1216 224 -1216 192
WIRE -1072 224 -1072 176
WIRE -1216 336 -1216 304
WIRE -1216 336 -1280 336
WIRE -1072 336 -1072 304
WIRE -1072 336 -1216 336
WIRE -1216 368 -1216 336
WIRE -1280 384 -1280 336
FLAG -112 -384 Vdd
IOPIN -112 -384 Out
FLAG -560 32 GND
IOPIN -560 32 Out
FLAG -80 -704 OUTb
IOPIN -80 -704 In
FLAG -80 -592 OUTa
IOPIN -80 -592 In
FLAG 320 -240 OUTb
IOPIN 320 -240 Out
FLAG 320 -160 OUTa
IOPIN 320 -160 Out
FLAG 96 -16 INa
IOPIN 96 -16 In
FLAG 176 -16 INb
IOPIN 176 -16 In
FLAG 192 -704 OUTc
IOPIN 192 -704 Out
FLAG 192 -592 OUTd
IOPIN 192 -592 Out
FLAG -800 -288 INa
IOPIN -800 -288 In
FLAG -800 32 INb
IOPIN -800 32 In
FLAG -1216 192 Vdd
IOPIN -1216 192 Out
FLAG -1216 368 GND
IOPIN -1216 368 Out
FLAG -1280 384 0
FLAG -608 -160 VD
IOPIN -608 -160 Out
FLAG -1072 176 VD
IOPIN -1072 176 Out
FLAG -816 -160 VD
IOPIN -816 -160 Out
FLAG 352 -704 OUTc
IOPIN 352 -704 Out
FLAG 352 -592 OUTd
IOPIN 352 -592 Out
FLAG 304 -576 GND
IOPIN 304 -576 Out
FLAG -912 64 GND
IOPIN -912 64 Out
SYMBOL sa612 0 -192 R0
SYMATTR InstName X1
SYMBOL voltage -1328 -96 R0
WINDOW 123 -61 19 Left 0
WINDOW 39 0 0 Left 0
WINDOW 0 -33 105 Left 0
WINDOW 3 21 98 Left 0
SYMATTR Value2 AC 1
SYMATTR InstName V5
SYMATTR Value SINE(0 1uv 14e6)
SYMBOL res -1232 -160 R90
WINDOW 0 -31 61 VBottom 0
WINDOW 3 -24 62 VTop 0
SYMATTR InstName R5
SYMATTR Value 50
SYMBOL cap -1168 -160 R90
WINDOW 0 0 32 VBottom 0
WINDOW 3 32 32 VTop 0
SYMATTR InstName C7
SYMATTR Value 20p
SYMBOL cap -304 -224 R0
SYMATTR InstName C2
SYMATTR Value 9p
SYMBOL cap -304 -96 R0
SYMATTR InstName C8
SYMATTR Value 11p
SYMBOL ind -448 -160 R0
SYMATTR InstName L8
SYMATTR Value 42.41e-6
SYMBOL cap -448 -224 R0
SYMATTR InstName C9
SYMATTR Value 1n
SYMBOL voltage -1216 208 R0
WINDOW 123 0 0 Left 0
WINDOW 39 0 0 Left 0
WINDOW 3 37 51 Left 0
SYMATTR Value 5V
SYMATTR InstName V2
SYMBOL AutoGenerated\\SMVDIODE -560 -64 R270
SYMATTR InstName U2
SYMBOL voltage -1072 208 R0
SYMATTR InstName V1
SYMBOL cap -576 -224 R0
SYMATTR InstName C10
SYMBOL ind2 -1136 -112 R0
SYMATTR InstName L1a
SYMATTR Type ind
SYMBOL ind2 -1136 -256 R0
SYMATTR InstName L1b
SYMATTR Type ind
SYMBOL cap -1040 -80 R0
SYMATTR InstName C3
SYMATTR Value 5p
SYMBOL cap -928 -256 R0
SYMATTR InstName C4
SYMBOL AutoGenerated\\SMVDIODE -912 -64 R270
SYMATTR InstName U1
SYMBOL res 288 -704 R0
SYMATTR InstName R1
SYMATTR Value 50
SYMBOL cap -832 -304 R90
WINDOW 0 0 32 VBottom 2
WINDOW 3 32 32 VTop 2
SYMATTR InstName C5
SYMATTR Value 10n
SYMBOL cap -832 16 R90
WINDOW 0 0 32 VBottom 2
WINDOW 3 32 32 VTop 2
SYMATTR InstName C6
SYMATTR Value 10n
SYMBOL cap -80 -688 R0
SYMATTR InstName C1
SYMBOL ind2 0 -704 R0
SYMATTR InstName L2a
SYMATTR Type ind
SYMBOL ind2 96 -704 R0
SYMATTR InstName L2b
SYMATTR Type ind
TEXT -240 264 Left 2 !.tran 500usec
TEXT -1200 320 Left 2 ;Power Supply
TEXT -24 -536 Left 0 !k2 L2a L2b 1
TEXT 80 -352 Left 2 ;1st Mixer
TEXT 96 104 Left 1 ;IF Filter
TEXT -264 232 Left 2 !;ac lin 200 10e6 20e6
TEXT -1112 56 Left 2 ;Input matching network
TEXT -1320 -88 Left 0 ;RF Signal
TEXT -1080 -360 Left 2 ;Ltotal = 90nHy
TEXT -1176 88 Left 2 !K1 L1a L1b 1
