Version 4
SHEET 1 880 680
WIRE -1552 -352 -1616 -352
WIRE -1536 -352 -1552 -352
WIRE -1232 -352 -1248 -352
WIRE -1200 -352 -1232 -352
WIRE -1088 -352 -1120 -352
WIRE -1056 -352 -1088 -352
WIRE -960 -352 -992 -352
WIRE -656 -352 -672 -352
WIRE -624 -352 -656 -352
WIRE -512 -352 -544 -352
WIRE -480 -352 -512 -352
WIRE -384 -352 -416 -352
WIRE -1616 -336 -1616 -352
WIRE -1088 -336 -1088 -352
WIRE -960 -336 -960 -352
WIRE -512 -336 -512 -352
WIRE -384 -336 -384 -352
WIRE -928 -256 -944 -256
WIRE -816 -256 -848 -256
WIRE -784 -256 -816 -256
WIRE -672 -256 -704 -256
WIRE -1616 -240 -1616 -256
WIRE -1552 -176 -1616 -176
WIRE -1408 -176 -1472 -176
WIRE -1376 -176 -1408 -176
WIRE -1296 -176 -1344 -176
WIRE -1200 -176 -1296 -176
WIRE -1088 -176 -1088 -256
WIRE -1088 -176 -1104 -176
WIRE -1072 -176 -1088 -176
WIRE -944 -176 -944 -256
WIRE -944 -176 -976 -176
WIRE -928 -176 -944 -176
WIRE -816 -176 -816 -256
WIRE -816 -176 -848 -176
WIRE -784 -176 -816 -176
WIRE -672 -176 -672 -256
WIRE -672 -176 -704 -176
WIRE -624 -176 -672 -176
WIRE -512 -176 -512 -256
WIRE -512 -176 -528 -176
WIRE -496 -176 -512 -176
WIRE -368 -176 -400 -176
WIRE -320 -176 -368 -176
WIRE -224 -176 -256 -176
WIRE -160 -176 -224 -176
WIRE -816 -144 -816 -176
WIRE -1616 -128 -1616 -176
WIRE -944 -128 -944 -176
WIRE -672 -128 -672 -176
WIRE -160 -128 -160 -176
WIRE -1296 -48 -1296 -96
WIRE -368 -48 -368 -96
WIRE -1616 -16 -1616 -48
WIRE -944 -16 -944 -32
WIRE -944 -16 -1088 -16
WIRE -816 -16 -816 -64
WIRE -672 -16 -672 -32
WIRE -512 -16 -672 -16
WIRE -944 0 -944 -16
WIRE -672 0 -672 -16
WIRE -160 0 -160 -48
WIRE -1088 32 -1088 -16
WIRE -512 32 -512 -16
WIRE -1552 48 -1616 48
WIRE -1536 48 -1552 48
WIRE -1616 80 -1616 48
WIRE -816 112 -816 64
WIRE -672 112 -672 96
WIRE -944 128 -944 96
WIRE -1216 144 -1248 144
WIRE -1200 144 -1216 144
WIRE -1088 144 -1088 112
WIRE -1088 144 -1120 144
WIRE -1056 144 -1088 144
WIRE -960 144 -992 144
WIRE -624 144 -656 144
WIRE -608 144 -624 144
WIRE -512 144 -512 112
WIRE -512 144 -528 144
WIRE -464 144 -512 144
WIRE -368 144 -400 144
WIRE -960 160 -960 144
WIRE -368 160 -368 144
WIRE -1616 176 -1616 160
FLAG -816 112 0
FLAG -960 -336 0
FLAG -384 -336 0
FLAG -672 112 0
FLAG -960 160 0
FLAG -368 160 0
FLAG -1232 -352 s
FLAG -656 -352 s
FLAG -1552 -352 s
FLAG -1216 144 d
FLAG -624 144 d
FLAG -1296 -48 0
FLAG -368 -48 0
FLAG -160 0 0
FLAG -1616 -16 0
FLAG -1616 176 0
FLAG -1616 -240 0
FLAG -1552 48 d
FLAG -1408 -176 i
FLAG -224 -176 o
FLAG -944 128 0
SYMBOL ind -944 -160 R270
WINDOW 0 32 56 VTop 2
WINDOW 3 5 56 VBottom 2
SYMATTR InstName L1
SYMATTR Value {Lr}
SYMBOL ind -800 -160 R270
WINDOW 0 32 56 VTop 2
WINDOW 3 5 56 VBottom 2
SYMATTR InstName L2
SYMATTR Value {Lr}
SYMATTR SpiceLine Rpar={rpr}
SYMBOL ind -832 -160 R0
SYMATTR InstName L3
SYMATTR Value {Lc}
SYMBOL res -1104 -368 R90
WINDOW 0 0 56 VBottom 2
WINDOW 3 32 56 VTop 2
SYMATTR InstName R1
SYMATTR Value 1k
SYMBOL cap -992 -368 R90
WINDOW 0 0 32 VBottom 2
WINDOW 3 32 32 VTop 2
SYMATTR InstName C1
SYMATTR Value 10n
SYMBOL cap -416 -368 R90
WINDOW 0 0 32 VBottom 2
WINDOW 3 32 32 VTop 2
SYMATTR InstName C2
SYMATTR Value 10n
SYMBOL res -528 -368 R90
WINDOW 0 0 56 VBottom 2
WINDOW 3 32 56 VTop 2
SYMATTR InstName R2
SYMATTR Value 1k
SYMBOL res -1104 -352 R0
SYMATTR InstName R3
SYMATTR Value 10k
SYMBOL res -528 -352 R0
SYMATTR InstName R4
SYMATTR Value 10k
SYMBOL res -1104 128 R90
WINDOW 0 0 56 VBottom 2
WINDOW 3 32 56 VTop 2
SYMATTR InstName R5
SYMATTR Value 1k
SYMBOL cap -992 128 R90
WINDOW 0 0 32 VBottom 2
WINDOW 3 32 32 VTop 2
SYMATTR InstName C3
SYMATTR Value 10n
SYMBOL res -1104 16 R0
SYMATTR InstName R6
SYMATTR Value 10k
SYMBOL res -512 128 R90
WINDOW 0 0 56 VBottom 2
WINDOW 3 32 56 VTop 2
SYMATTR InstName R7
SYMATTR Value 1k
SYMBOL cap -400 128 R90
WINDOW 0 0 32 VBottom 2
WINDOW 3 32 32 VTop 2
SYMATTR InstName C4
SYMATTR Value 10n
SYMBOL res -528 16 R0
SYMATTR InstName R8
SYMATTR Value 10k
SYMBOL res -384 -192 R0
SYMATTR InstName R9
SYMATTR Value 10k
SYMBOL res -1312 -192 R0
SYMATTR InstName R10
SYMATTR Value 10k
SYMBOL cap -1344 -192 R90
WINDOW 0 0 32 VBottom 2
WINDOW 3 32 32 VTop 2
SYMATTR InstName C5
SYMATTR Value 10n
SYMBOL cap -256 -192 R90
WINDOW 0 0 32 VBottom 2
WINDOW 3 32 32 VTop 2
SYMATTR InstName C6
SYMATTR Value 10n
SYMBOL res -176 -144 R0
SYMATTR InstName R11
SYMATTR Value {rl}
SYMBOL res -1456 -192 R90
WINDOW 0 0 56 VBottom 2
WINDOW 3 32 56 VTop 2
SYMATTR InstName R12
SYMATTR Value {rs}
SYMBOL voltage -1616 -144 R0
WINDOW 123 24 124 Left 2
WINDOW 39 0 0 Left 2
SYMATTR Value2 AC 100u
SYMATTR InstName V1
SYMATTR Value ""
SYMBOL voltage -1616 -352 R0
WINDOW 123 0 0 Left 2
WINDOW 39 0 0 Left 2
SYMATTR InstName V2
SYMATTR Value {V1}
SYMBOL voltage -1616 64 R0
WINDOW 123 0 0 Left 2
WINDOW 39 0 0 Left 2
SYMATTR InstName V3
SYMATTR Value {V2}
SYMBOL AutoGenerated\\SMVDIODE -1152 -176 R0
SYMATTR InstName U1
SYMATTR SpiceLine Cjo={Cjo1} M={M1} Vj={Vj1} R={Rs1} Ls={Ls1} Cp={Cp1}
SYMBOL AutoGenerated\\SMVDIODE -1024 -176 R180
SYMATTR InstName U2
SYMATTR SpiceLine Cjo={Cjo1} M={M1} Vj={Vj1} R={Rs1} Ls={Ls1} Cp={Cp1}
SYMBOL AutoGenerated\\SMVDIODE -576 -176 R0
SYMATTR InstName U3
SYMATTR SpiceLine Cjo={Cjo1} M={M1} Vj={Vj1} R={Rs1} Ls={Ls1} Cp={Cp1}
SYMBOL AutoGenerated\\SMVDIODE -448 -176 R180
SYMATTR InstName U4
SYMATTR SpiceLine Cjo={Cjo1} M={M1} Vj={Vj1} R={Rs1} Ls={Ls1} Cp={Cp1}
SYMBOL AutoGenerated\\SMVDIODE -944 -80 R90
SYMATTR InstName U5
SYMATTR SpiceLine Cjo={Cjo2} M={M2} Vj={Vj2} R={Rs2} Ls={Ls2} Cp={Cp2}
SYMBOL AutoGenerated\\SMVDIODE -944 48 R270
SYMATTR InstName U6
SYMATTR SpiceLine Cjo={Cjo2} M={M2} Vj={Vj2} R={Rs2} Ls={Ls2} Cp={Cp2}
SYMBOL AutoGenerated\\SMVDIODE -672 -80 R90
SYMATTR InstName U7
SYMATTR SpiceLine Cjo={Cjo2} M={M2} Vj={Vj2} R={Rs2} Ls={Ls2} Cp={Cp2}
SYMBOL AutoGenerated\\SMVDIODE -672 48 R270
SYMATTR InstName U8
SYMATTR SpiceLine Cjo={Cjo2} M={M2} Vj={Vj2} R={Rs2} Ls={Ls2} Cp={Cp2}
SYMBOL res -832 -272 R90
WINDOW 0 0 56 VBottom 2
WINDOW 3 32 56 VTop 2
SYMATTR InstName R13
SYMATTR Value {rpr}
SYMBOL res -688 -272 R90
WINDOW 0 0 56 VBottom 2
WINDOW 3 32 56 VTop 2
SYMATTR InstName R14
SYMATTR Value {rpr}
SYMBOL res -832 -32 R0
SYMATTR InstName R15
SYMATTR Value {rpc}
TEXT 8 -296 Left 2 !.param Lc   =  8.12e-09\n.param rpc =  0.1 \n.param Lr   =  2.73e-07\n.param rpr =  6728.2 \n.param rs    =  50.000\n.param rl    =  50.000\n.param Cjo1  =  5.18e-11\n.param M1    =  48.70\n.param Vj1   =  73.60\n.param Ls1   =  1.40e-09\n.param Rs1    =  1.100\n.param Cp1   =  2.70e-12\n.param Cjo2  =  2.89e-11\n.param M2    =  105.00\n.param Vj2   =  190.00\n.param Ls2   =  1.50e-09\n.param Rs2    =  1.400\n.param Cp2   =  2.20e-12
TEXT -1392 248 Left 2 !.ac dec 1000 40e6 240e6
TEXT -1544 248 Left 2 !;tran 0.1
TEXT -992 232 Left 2 !.param V1 =  1.743\n.param V2 =  2.651
TEXT -720 232 Left 2 ;.param V1 =  2.588\n.param V2 =  3.851
TEXT -480 232 Left 2 ;.param V1 =  3.370\n.param V2 =  5.128
