Version 4
SHEET 1 880 680
WIRE -240 -80 -288 -80
WIRE 16 -80 -160 -80
WIRE 240 -80 112 -80
WIRE 272 -80 240 -80
WIRE 448 -80 352 -80
WIRE 16 -48 -48 -48
WIRE 176 -48 112 -48
WIRE -288 -32 -288 -80
WIRE 448 -16 448 -80
WIRE 240 16 240 -80
WIRE -48 32 -48 -48
WIRE 176 32 176 -48
WIRE -288 112 -288 48
WIRE 240 112 240 80
WIRE 448 112 448 64
FLAG -288 112 0
FLAG 240 112 0
FLAG 448 112 0
FLAG 176 32 0
FLAG -48 32 0
SYMBOL voltage -288 -48 R0
WINDOW 3 -129 177 VLeft 2
WINDOW 123 0 0 Left 0
WINDOW 39 0 0 Left 0
SYMATTR Value SINE(0 {vg} {fo} 0 0 0)
SYMATTR InstName V1
SYMBOL res -256 -64 R270
WINDOW 0 32 56 VTop 2
WINDOW 3 0 56 VBottom 2
SYMATTR InstName rg1
SYMATTR Value 50
SYMBOL cap 224 16 R0
SYMATTR InstName C1
SYMATTR Value ?
SYMBOL ind 256 -64 R270
WINDOW 0 32 56 VTop 2
WINDOW 3 5 56 VBottom 2
SYMATTR InstName L1
SYMATTR Value ?
SYMBOL tline 64 -64 R0
SYMATTR InstName T1
SYMBOL Misc\\EuropeanResistor 432 -32 R0
SYMATTR InstName Zant
SYMATTR Value Z = 20 - j2.25
TEXT -408 184 Left 2 !.tran 0 310e-6 300e-6 1n
TEXT -88 184 Left 2 !.param ra =  2.00 \n.param rg =  50.00 \n.param Ca  =  3.0000e-11 \n.param L  =  9.4336e-05 \n.param C  =  5.1980e-09 \n.param vg =  200.00 \n.param fo=  3.00e+06
