Version 4
SHEET 1 1316 728
WIRE 688 -144 640 -144
WIRE 720 -144 688 -144
WIRE 640 -128 640 -144
WIRE 592 80 560 80
WIRE 624 80 592 80
WIRE 928 80 848 80
WIRE 992 80 928 80
WIRE -128 160 -208 160
WIRE -48 160 -128 160
WIRE 624 160 576 160
WIRE 80 176 32 176
WIRE 144 176 80 176
WIRE 288 176 224 176
WIRE 336 176 288 176
WIRE 384 176 336 176
WIRE 576 176 576 160
WIRE -128 192 -208 192
WIRE -48 192 -128 192
WIRE 288 208 288 176
WIRE 624 240 576 240
WIRE 896 240 848 240
WIRE 944 240 896 240
WIRE 288 320 288 272
WIRE 576 320 576 240
WIRE -112 352 -176 352
WIRE -48 352 -112 352
WIRE -176 384 -176 352
WIRE 576 448 576 400
WIRE 640 448 576 448
WIRE 672 448 640 448
FLAG -176 464 0
FLAG -112 352 SQWV_IN
FLAG 576 176 0
FLAG 640 -48 0
FLAG 688 -144 5V
FLAG 592 80 5V
FLAG 928 80 SQWV_OUT
FLAG -128 160 SQWV_IN
FLAG 896 240 5V
FLAG 288 320 0
FLAG 336 176 CTRL
FLAG 80 176 PD
FLAG -128 192 SQWV_OUT
FLAG 640 448 5V
SYMBOL DigitalLogic\\XOR_2 0 176 R0
WINDOW 0 -28 54 Left 2
SYMATTR InstName U1
SYMBOL voltage -176 368 R0
WINDOW 123 0 0 Left 2
WINDOW 39 0 0 Left 2
SYMATTR InstName V1
SYMATTR Value PULSE(0 5 0 100n 100n .1m .2m 500)
SYMBOL SpecialFunctions\\LTC6900 736 160 R0
SYMATTR InstName U3
SYMBOL voltage 640 -144 R0
WINDOW 123 0 0 Left 2
WINDOW 39 0 0 Left 2
SYMATTR InstName V2
SYMATTR Value 5
SYMBOL bi 576 400 R180
WINDOW 0 24 80 Left 2
WINDOW 3 24 0 Left 2
SYMATTR InstName B1
SYMATTR Value I=V(ctrl)*1.2u
SYMBOL res 240 160 R90
WINDOW 0 0 56 VBottom 2
WINDOW 3 32 56 VTop 2
SYMATTR InstName R1
SYMATTR Value 500
SYMBOL cap 272 208 R0
SYMATTR InstName C1
SYMATTR Value 10µ
TEXT 840 472 Left 2 !.tran 100m
