Version 4
SHEET 1 1608 992
WIRE -32 -96 -272 -96
WIRE -32 -80 -32 -96
WIRE -272 -64 -272 -96
WIRE -336 0 -464 0
WIRE -464 32 -464 0
WIRE -32 32 -32 0
WIRE -464 128 -464 112
WIRE -272 128 -272 64
WIRE -240 128 -240 64
WIRE -32 128 -32 112
FLAG -272 128 0
FLAG -240 128 0
FLAG -464 128 0
FLAG -32 128 0
SYMBOL AutoGenerated\\BFP460 -272 16 R0
SYMATTR InstName U1
SYMBOL ind -48 -96 R0
SYMATTR InstName L1
SYMATTR Value 10µ
SYMBOL voltage -32 16 R0
WINDOW 123 0 0 Left 0
WINDOW 39 0 0 Left 0
SYMATTR InstName VCC
SYMATTR Value 2
SYMBOL voltage -464 16 R0
WINDOW 123 0 0 Left 0
WINDOW 39 0 0 Left 0
SYMATTR InstName V2
SYMATTR Value 0.8
TEXT -498 152 Left 2 !.dc VCC 0.3 10 0.1
