Version 4
SHEET 1 880 680
WIRE 384 48 144 48
WIRE 512 48 384 48
WIRE 384 64 384 48
WIRE 144 80 144 48
WIRE 512 80 512 48
WIRE -192 144 -224 144
WIRE -48 144 -128 144
WIRE 80 144 -48 144
WIRE -224 176 -224 144
WIRE -48 176 -48 144
WIRE 384 176 384 144
WIRE 512 192 512 144
WIRE -224 272 -224 256
WIRE -48 272 -48 256
WIRE 144 272 144 208
WIRE 176 272 176 208
WIRE 384 272 384 256
FLAG 144 272 0
FLAG 176 272 0
FLAG -48 272 0
FLAG 384 272 0
FLAG -224 272 0
FLAG 512 192 0
SYMBOL AutoGenerated\\BFP460 144 160 R0
SYMATTR InstName U1
SYMBOL ind 368 48 R0
SYMATTR InstName L1
SYMATTR Value 1e-3
SYMBOL voltage 384 160 R0
WINDOW 123 0 0 Left 0
WINDOW 39 0 0 Left 0
SYMATTR InstName VCC1
SYMATTR Value 2
SYMBOL current -48 256 R180
WINDOW 0 24 80 Left 2
WINDOW 3 24 0 Left 2
WINDOW 123 24 -28 Left 2
WINDOW 39 0 0 Left 0
SYMATTR InstName IBB1
SYMATTR Value 500e-6
SYMBOL current -224 256 R180
WINDOW 0 24 80 Left 2
WINDOW 3 24 0 Left 2
WINDOW 123 24 -28 Left 2
WINDOW 39 0 0 Left 0
SYMATTR InstName IB
SYMATTR Value ""
SYMATTR Value2 AC 10e-6
SYMBOL cap -128 128 R90
WINDOW 0 0 32 VBottom 2
WINDOW 3 32 32 VTop 2
SYMATTR InstName C1
SYMATTR Value 10e-6
SYMBOL cap 496 80 R0
SYMATTR InstName C2
SYMATTR Value 10e-6
TEXT -368 304 Left 2 !.ac dec 100 10e6 30e9
TEXT -360 336 Left 2 !;op dec 100 10e6 30e9
