Version 4
SHEET 1 976 2992
WIRE -1440 -96 -1568 -96
WIRE -1376 -96 -1440 -96
WIRE -1248 -96 -1312 -96
WIRE -128 -96 -256 -96
WIRE -64 -96 -128 -96
WIRE 64 -96 0 -96
WIRE -1440 -48 -1440 -96
WIRE -128 -48 -128 -96
WIRE -1568 -32 -1568 -96
WIRE -256 -32 -256 -96
WIRE -1952 16 -2032 16
WIRE -1776 16 -1888 16
WIRE -1632 16 -1776 16
WIRE -640 16 -720 16
WIRE -464 16 -576 16
WIRE -320 16 -464 16
WIRE -1776 48 -1776 16
WIRE -464 48 -464 16
WIRE -2032 80 -2032 16
WIRE -720 80 -720 16
WIRE -1776 160 -1776 128
WIRE -1440 160 -1440 32
WIRE -464 160 -464 128
WIRE -128 160 -128 32
WIRE -2032 240 -2032 160
WIRE -1568 240 -1568 64
WIRE -1536 240 -1536 64
WIRE -1248 240 -1248 -96
WIRE -720 240 -720 160
WIRE -256 240 -256 64
WIRE 64 240 64 -96
FLAG -128 240 0
FLAG -464 240 0
FLAG -256 240 0
FLAG 64 240 0
FLAG -720 240 0
FLAG -1440 240 0
FLAG -1776 240 0
FLAG -1568 240 0
FLAG -1248 240 0
FLAG -2032 240 0
FLAG -1536 240 0
SYMBOL npn -320 -32 R0
SYMATTR InstName Q1
SYMBOL current -464 240 R180
WINDOW 0 24 80 Left 2
WINDOW 3 24 0 Left 2
WINDOW 123 0 0 Left 0
WINDOW 39 0 0 Left 0
SYMATTR InstName I1
SYMATTR Value 5e-6
SYMBOL voltage -128 144 R0
WINDOW 123 0 0 Left 0
WINDOW 39 0 0 Left 0
SYMATTR InstName V1
SYMATTR Value 0.8
SYMBOL cap -576 0 R90
WINDOW 0 0 32 VBottom 2
WINDOW 3 32 32 VTop 2
SYMATTR InstName C1
SYMATTR Value 1e-6
SYMBOL ind -480 32 R0
SYMATTR InstName L1
SYMATTR Value 1e-6
SYMBOL ind -144 -64 R0
SYMATTR InstName L2
SYMATTR Value 1e-6
SYMBOL cap 0 -112 R90
WINDOW 0 0 32 VBottom 2
WINDOW 3 32 32 VTop 2
SYMATTR InstName C2
SYMATTR Value 1e-6
SYMBOL current -720 160 R180
WINDOW 0 24 80 Left 2
WINDOW 3 24 0 Left 2
WINDOW 123 24 -28 Left 2
WINDOW 39 0 0 Left 0
SYMATTR InstName I2
SYMATTR Value SINE(0 0.1e-6)
SYMATTR Value2 AC 0.1e-6
SYMBOL current -1776 240 R180
WINDOW 0 24 80 Left 2
WINDOW 3 24 0 Left 2
WINDOW 123 0 0 Left 0
WINDOW 39 0 0 Left 0
SYMATTR InstName I3
SYMATTR Value 5e-6
SYMBOL voltage -1440 144 R0
WINDOW 123 0 0 Left 0
WINDOW 39 0 0 Left 0
SYMATTR InstName V2
SYMATTR Value 0.8
SYMBOL cap -1888 0 R90
WINDOW 0 0 32 VBottom 2
WINDOW 3 32 32 VTop 2
SYMATTR InstName C3
SYMATTR Value 1e-6
SYMBOL ind -1792 32 R0
SYMATTR InstName L3
SYMATTR Value 1e-6
SYMBOL ind -1456 -64 R0
SYMATTR InstName L4
SYMATTR Value 1e-6
SYMBOL cap -1312 -112 R90
WINDOW 0 0 32 VBottom 2
WINDOW 3 32 32 VTop 2
SYMATTR InstName C4
SYMATTR Value 1e-6
SYMBOL current -2032 160 R180
WINDOW 0 24 80 Left 2
WINDOW 3 24 0 Left 2
WINDOW 123 24 -28 Left 2
WINDOW 39 0 0 Left 0
SYMATTR InstName I4
SYMATTR Value SINE(0 0.1e-6)
SYMATTR Value2 AC 0.1e-6
SYMBOL npn_bn -1632 -32 R0
SYMATTR InstName Q2
SYMATTR Value npn13G2l
SYMATTR Prefix X
TEXT 288 -40 Left 2 !.param Nx=1 le=2.50e-6 dtemp=0\n+Ny=1 we=0.12e-6\n+El=le*1e6\n.model npn npn level = 9\n+ tnom = 27\n+ cbeo = '1.92E-15*(El/2.5)**0.85*(Nx*0.25)**0.95'\n+ cje = '2.166E-14*(El/2.5)**0.85*(Nx*0.25)**0.95'\n+ pe = 0.92\n+ me = 0.12\n+ aje = -0.50\n+ wbe = 1.00\n+ cbco = '6.33E-15*(El/2.5)**0.85*(Nx*0.25)**0.975'\n+ cjc = '3.83E-15*(El/2.5)**0.85*(Nx*0.25)**0.975'\n+ pc = 0.558\n+ mc = 0.12\n+ ajc = -0.50\n+ cjep = '7.77E-15*(El/2.5)**0.85*(Nx*0.25)**0.975'\n+ cjcp = '8.36E-15*(El/2.5)**0.55*(Nx*0.25)**0.8'\n+ ps = 0.46\n+ ms = 0.23\n+ ajs = -0.50\n+ fc = 0.80\n+ vef = 189\n+ ver = 5.3\n+ is = '7.50E-17*(El/2.5)**0.85*(Nx*0.25)'\n+ nf = 1.004\n+ ibei = '2.01E-19*(El/2.5)**0.85*(Nx*0.25)'\n+ nei = 1.035\n+ iben = '1.20E-15*(El/2.5)**0.85*(Nx*0.25)'\n+ nen = 2.00\n+ ikf = '0.032*(El/2.5)*(Nx*0.25)'\n+ nr = 1.01\n+ ibci = '3.00E-19*(El/2.5)*(Nx*0.25)'\n+ nci = 1.050\n+ ibcn = '1.00E-15*(El/2.5)*(Nx*0.25)'\n+ ncn = 1.70\n+ ikr = '0.01*(El/2.5)*(Nx*0.25)'\n+ wsp = 1\n+ isp = '4.00E-20*(El/2.5)*(Nx*0.25)'\n+ nfp = 1.04\n+ ibcip = '2.00E-15*(El/2.5)*(Nx*0.25)**0.7'\n+ ncip = 1.00\n+ ibcnp = '5.00E-15*(El/2.5)*(Nx*0.25)'\n+ ncnp = 1.50\n+ ikp = '1.00E-04*(El/2.5)*(Nx*0.25)'\n+ ibeip = '4.00E-19*(El/2.5)*(Nx*0.25)'\n+ ibenp = '2.00E-14*(El/2.5)*(Nx*0.25)'\n+ re = '3.19E+00*(2.5/El)*(4/Nx)**0.88'\n+ rcx = '3.90E+00*(2.5/El)*(4/Nx)**0.9'\n+ rci = '7.50E+00*(2.5/El)**0.85*(4/Nx)**1'\n+ qco = 1.00E-18\n+ vo = 0.80\n+ gamm = 3.00E-14\n+ hrcf = 1000\n+ rbx = '2.54E+00*(2.5/El)**0.7*(4/Nx)'\n+ rbi = '7.26E+00*(2.5/El)**0.7*(4/Nx)'\n+ rbp = '15.0*(2.5/El)**0.7*(4/Nx)'\n+ rs = '1*(2.5/El)*(4/Nx)'\n+ avc1 = 2.40\n+ avc2 = 10.81\n+ tf = '2.31E-13*(El/2.5)**0.15*((temp+273)/300)**0.7'\n+ qtf = 1.00E-18\n+ xtf = 10.0\n+ vtf = 20.0\n+ itf = '1.658*(El/2.5)*(Nx*0.25)'\n+ tr = 5.00E-13\n+ td = '2.8e-13*(El/2.5)'\n+ cth = '4.18E-12*(El/2.5)**0.8*(Nx*0.25)**0.8'\n+ rth = '1.63E+03*(2.5/El)**0.85*(4/Nx)**0.8'\n+ ea = 1.045\n+ eaie = 1.078\n+ eaic = 1.12\n+ eais = 1.12\n+ eane = 1.12\n+ eanc = 1.12\n+ eans = 1.12\n+ xre = -0.42\n+ xrs = 1.50\n+ xvo = 1.50\n+ xis = 2.30\n+ xii = 3.30\n+ xin = 3.30\n+ tnf = 0.00015\n+ tavc = -0.00188\n+ kfn = '3.00E-9*(2.5/El)*(4/Nx)'\n+ afn = 1.80\n+ bfn = 1.00\n.ends npn
TEXT -920 -112 Left 2 !.ac lin 1e6 1e6 500e9
TEXT -2976 48 Left 2 !.subckt npn13G2l c b e bn\n.param Nx=1 le=2.50e-6 dtemp=0\n+Ny=1 we=0.12e-6\n+El=le*1e6\n  \nQnpn13G2l c b e s1 npn13G2l_NX_vbic m=1\n \n.model npn13G2l_NX_vbic npn \n+level = 9\n+ tnom = 27\n+ cbeo = {1.92E-15*(El/2.5)**0.85*(Nx*0.25)**0.95}\n+ cje = {2.166E-14*(El/2.5)**0.85*(Nx*0.25)**0.95}\n+ pe = 0.92\n+ me = 0.12\n+ aje = -0.50\n+ wbe = 1.00\n+ cbco = {6.33E-15*(El/2.5)**0.85*(Nx*0.25)**0.975}\n+ cjc = {3.83E-15*(El/2.5)**0.85*(Nx*0.25)**0.975}\n+ pc = 0.558\n+ mc = 0.12\n+ ajc = -0.50\n+ cjep = {7.77E-15*(El/2.5)**0.85*(Nx*0.25)**0.975}\n+ cjcp = {8.36E-15*(El/2.5)**0.55*(Nx*0.25)**0.8}\n+ ps = 0.46\n+ ms = 0.23\n+ ajs = -0.50\n+ fc = 0.80\n+ vef = 189\n+ ver = 5.3\n+ is = {7.50E-17*(El/2.5)**0.85*(Nx*0.25)}\n+ nf = 1.004\n+ ibei = {2.01E-19*(El/2.5)**0.85*(Nx*0.25)}\n+ nei = 1.035\n+ iben = {1.20E-15*(El/2.5)**0.85*(Nx*0.25)}\n+ nen = 2.00\n+ ikf = {0.032*(El/2.5)*(Nx*0.25)}\n+ nr = 1.01\n+ ibci = {3.00E-19*(El/2.5)*(Nx*0.25)}\n+ nci = 1.050\n+ ibcn = {1.00E-15*(El/2.5)*(Nx*0.25)}\n+ ncn = 1.70\n+ ikr = {0.01*(El/2.5)*(Nx*0.25)}\n+ wsp = 1\n+ isp = {4.00E-20*(El/2.5)*(Nx*0.25)}\n+ nfp = 1.04\n+ ibcip = {2.00E-15*(El/2.5)*(Nx*0.25)**0.7}\n+ ncip = 1.00\n+ ibcnp = {5.00E-15*(El/2.5)*(Nx*0.25)}\n+ ncnp = 1.50\n+ ikp = {1.00E-04*(El/2.5)*(Nx*0.25)}\n+ ibeip = {4.00E-19*(El/2.5)*(Nx*0.25)}\n+ ibenp = {2.00E-14*(El/2.5)*(Nx*0.25)}\n+ re = {3.19E+00*(2.5/El)*(4/Nx)**0.88}\n+ rcx = {3.90E+00*(2.5/El)*(4/Nx)**0.9}\n+ rci = {7.50E+00*(2.5/El)**0.85*(4/Nx)**1}\n+ qco = 1.00E-18\n+ vo = 0.80\n+ gamm = 3.00E-14\n+ hrcf = 1000\n+ rbx = {2.54E+00*(2.5/El)**0.7*(4/Nx)}\n+ rbi = {7.26E+00*(2.5/El)**0.7*(4/Nx)}\n+ rbp = {15.0*(2.5/El)**0.7*(4/Nx)}\n+ rs = {1*(2.5/El)*(4/Nx)}\n+ avc1 = 2.40\n+ avc2 = 10.81\n+ tf = {2.31E-13*(El/2.5)**0.15*((temp+273)/300)**0.7}\n+ qtf = 1.00E-18\n+ xtf = 10.0\n+ vtf = 20.0\n+ itf = {1.658*(El/2.5)*(Nx*0.25)}\n+ tr = 5.00E-13\n+ td = '2.8e-13*(El/2.5)'\n+ cth = {4.18E-12*(El/2.5)**0.8*(Nx*0.25)**0.8}\n+ rth = {1.63E+03*(2.5/El)**0.85*(4/Nx)**0.8}\n+ ea = 1.045\n+ eaie = 1.078\n+ eaic = 1.12\n+ eais = 1.12\n+ eane = 1.12\n+ eanc = 1.12\n+ eans = 1.12\n+ xre = -0.42\n+ xrbi = 0.90\n+ xrci = 0.420\n+ xrs = 1.50\n+ xvo = 1.50\n+ xis = 2.30\n+ xii = 3.30\n+ xin = 3.30\n+ tnf = 0.00015\n+ tavc = -0.00188\n+ kfn = {3.00E-9*(2.5/El)*(4/Nx)}\n+ afn = 1.80\n+ bfn = 1.00\nRsub s1 bn {(300+(400*Nx))*(El/2.5)**0.85}\nCsub s1 bn {(1.70E-14-(2.00E-15*Nx))*(El/2.5)**0}\n.ends npn13G2l
