Version 4
SHEET 1 1008 3968
WIRE -128 -96 -256 -96
WIRE -256 -32 -256 -96
WIRE -320 16 -464 16
WIRE -464 64 -464 16
WIRE -128 64 -128 -96
WIRE -256 144 -256 64
WIRE -128 432 -256 432
WIRE -256 496 -256 432
WIRE -320 544 -464 544
WIRE -464 592 -464 544
WIRE -128 592 -128 432
WIRE -256 672 -256 592
WIRE -224 672 -224 592
FLAG -128 144 0
FLAG -464 144 0
FLAG -256 144 0
FLAG -128 672 0
FLAG -464 672 0
FLAG -256 672 0
FLAG -224 672 0
SYMBOL npn -320 -32 R0
SYMATTR InstName Q1
SYMBOL current -464 144 R180
WINDOW 0 24 80 Left 2
WINDOW 3 24 0 Left 2
WINDOW 123 0 0 Left 0
WINDOW 39 0 0 Left 0
SYMATTR InstName I1
SYMATTR Value 10e-6
SYMBOL voltage -128 48 R0
WINDOW 123 0 0 Left 0
WINDOW 39 0 0 Left 0
SYMATTR InstName V1
SYMATTR Value 3.3
SYMBOL npn_bn -320 496 R0
SYMATTR InstName Q2
SYMATTR Value npn13G2l
SYMATTR Prefix X
SYMBOL current -464 672 R180
WINDOW 0 24 80 Left 2
WINDOW 3 24 0 Left 2
WINDOW 123 0 0 Left 0
WINDOW 39 0 0 Left 0
SYMATTR InstName I2
SYMATTR Value 10e-6
SYMBOL voltage -128 576 R0
WINDOW 123 0 0 Left 0
WINDOW 39 0 0 Left 0
SYMATTR InstName V2
SYMATTR Value 3.3
TEXT 272 -120 Left 2 !.dc V2 0 1.8 0.01 I2 0 10e-6 1e-6
TEXT 288 -40 Left 2 !.param Nx=1 le=2.50e-6 dtemp=0\n+Ny=1 we=0.12e-6\n+El=le*1e6\n.model npn npn level = 9\n+ tnom = 27\n+ cbeo = '1.92E-15*(El/2.5)**0.85*(Nx*0.25)**0.95'\n+ cje = '2.166E-14*(El/2.5)**0.85*(Nx*0.25)**0.95'\n+ pe = 0.92\n+ me = 0.12\n+ aje = -0.50\n+ wbe = 1.00\n+ cbco = '6.33E-15*(El/2.5)**0.85*(Nx*0.25)**0.975'\n+ cjc = '3.83E-15*(El/2.5)**0.85*(Nx*0.25)**0.975'\n+ pc = 0.558\n+ mc = 0.12\n+ ajc = -0.50\n+ cjep = '7.77E-15*(El/2.5)**0.85*(Nx*0.25)**0.975'\n+ cjcp = '8.36E-15*(El/2.5)**0.55*(Nx*0.25)**0.8'\n+ ps = 0.46\n+ ms = 0.23\n+ ajs = -0.50\n+ fc = 0.80\n+ vef = 189\n+ ver = 5.3\n+ is = '7.50E-17*(El/2.5)**0.85*(Nx*0.25)'\n+ nf = 1.004\n+ ibei = '2.01E-19*(El/2.5)**0.85*(Nx*0.25)'\n+ nei = 1.035\n+ iben = '1.20E-15*(El/2.5)**0.85*(Nx*0.25)'\n+ nen = 2.00\n+ ikf = '0.032*(El/2.5)*(Nx*0.25)'\n+ nr = 1.01\n+ ibci = '3.00E-19*(El/2.5)*(Nx*0.25)'\n+ nci = 1.050\n+ ibcn = '1.00E-15*(El/2.5)*(Nx*0.25)'\n+ ncn = 1.70\n+ ikr = '0.01*(El/2.5)*(Nx*0.25)'\n+ wsp = 1\n+ isp = '4.00E-20*(El/2.5)*(Nx*0.25)'\n+ nfp = 1.04\n+ ibcip = '2.00E-15*(El/2.5)*(Nx*0.25)**0.7'\n+ ncip = 1.00\n+ ibcnp = '5.00E-15*(El/2.5)*(Nx*0.25)'\n+ ncnp = 1.50\n+ ikp = '1.00E-04*(El/2.5)*(Nx*0.25)'\n+ ibeip = '4.00E-19*(El/2.5)*(Nx*0.25)'\n+ ibenp = '2.00E-14*(El/2.5)*(Nx*0.25)'\n+ re = '3.19E+00*(2.5/El)*(4/Nx)**0.88'\n+ rcx = '3.90E+00*(2.5/El)*(4/Nx)**0.9'\n+ rci = '7.50E+00*(2.5/El)**0.85*(4/Nx)**1'\n+ qco = 1.00E-18\n+ vo = 0.80\n+ gamm = 3.00E-14\n+ hrcf = 1000\n+ rbx = '2.54E+00*(2.5/El)**0.7*(4/Nx)'\n+ rbi = '7.26E+00*(2.5/El)**0.7*(4/Nx)'\n+ rbp = '15.0*(2.5/El)**0.7*(4/Nx)'\n+ rs = '1*(2.5/El)*(4/Nx)'\n+ avc1 = 2.40\n+ avc2 = 10.81\n+ tf = '2.31E-13*(El/2.5)**0.15*((temp+273)/300)**0.7'\n+ qtf = 1.00E-18\n+ xtf = 10.0\n+ vtf = 20.0\n+ itf = '1.658*(El/2.5)*(Nx*0.25)'\n+ tr = 5.00E-13\n+ td = '2.8e-13*(El/2.5)'\n+ cth = '4.18E-12*(El/2.5)**0.8*(Nx*0.25)**0.8'\n+ rth = '1.63E+03*(2.5/El)**0.85*(4/Nx)**0.8'\n+ ea = 1.045\n+ eaie = 1.078\n+ eaic = 1.12\n+ eais = 1.12\n+ eane = 1.12\n+ eanc = 1.12\n+ eans = 1.12\n+ xre = -0.42\n+ xrs = 1.50\n+ xvo = 1.50\n+ xis = 2.30\n+ xii = 3.30\n+ xin = 3.30\n+ tnf = 0.00015\n+ tavc = -0.00188\n+ kfn = '3.00E-9*(2.5/El)*(4/Nx)'\n+ afn = 1.80\n+ bfn = 1.00\n.ends npn
TEXT -1432 -120 Left 2 !.subckt npn13G2l c b e bn\n.param Nx=1 le=2.50e-6 dtemp=0\n+Ny=1 we=0.12e-6\n+El=le*1e6\n  \nQnpn13G2l c b e s1 npn13G2l_NX_vbic m=1\n \n.model npn13G2l_NX_vbic npn \n+level = 9\n+ tnom = 27\n+ cbeo = {1.92E-15*(El/2.5)**0.85*(Nx*0.25)**0.95}\n+ cje = {2.166E-14*(El/2.5)**0.85*(Nx*0.25)**0.95}\n+ pe = 0.92\n+ me = 0.12\n+ aje = -0.50\n+ wbe = 1.00\n+ cbco = {6.33E-15*(El/2.5)**0.85*(Nx*0.25)**0.975}\n+ cjc = {3.83E-15*(El/2.5)**0.85*(Nx*0.25)**0.975}\n+ pc = 0.558\n+ mc = 0.12\n+ ajc = -0.50\n+ cjep = {7.77E-15*(El/2.5)**0.85*(Nx*0.25)**0.975}\n+ cjcp = {8.36E-15*(El/2.5)**0.55*(Nx*0.25)**0.8}\n+ ps = 0.46\n+ ms = 0.23\n+ ajs = -0.50\n+ fc = 0.80\n+ vef = 189\n+ ver = 5.3\n+ is = {7.50E-17*(El/2.5)**0.85*(Nx*0.25)}\n+ nf = 1.004\n+ ibei = {2.01E-19*(El/2.5)**0.85*(Nx*0.25)}\n+ nei = 1.035\n+ iben = {1.20E-15*(El/2.5)**0.85*(Nx*0.25)}\n+ nen = 2.00\n+ ikf = {0.032*(El/2.5)*(Nx*0.25)}\n+ nr = 1.01\n+ ibci = {3.00E-19*(El/2.5)*(Nx*0.25)}\n+ nci = 1.050\n+ ibcn = {1.00E-15*(El/2.5)*(Nx*0.25)}\n+ ncn = 1.70\n+ ikr = {0.01*(El/2.5)*(Nx*0.25)}\n+ wsp = 1\n+ isp = {4.00E-20*(El/2.5)*(Nx*0.25)}\n+ nfp = 1.04\n+ ibcip = {2.00E-15*(El/2.5)*(Nx*0.25)**0.7}\n+ ncip = 1.00\n+ ibcnp = {5.00E-15*(El/2.5)*(Nx*0.25)}\n+ ncnp = 1.50\n+ ikp = {1.00E-04*(El/2.5)*(Nx*0.25)}\n+ ibeip = {4.00E-19*(El/2.5)*(Nx*0.25)}\n+ ibenp = {2.00E-14*(El/2.5)*(Nx*0.25)}\n+ re = {3.19E+00*(2.5/El)*(4/Nx)**0.88}\n+ rcx = {3.90E+00*(2.5/El)*(4/Nx)**0.9}\n+ rci = {7.50E+00*(2.5/El)**0.85*(4/Nx)**1}\n+ qco = 1.00E-18\n+ vo = 0.80\n+ gamm = 3.00E-14\n+ hrcf = 1000\n+ rbx = {2.54E+00*(2.5/El)**0.7*(4/Nx)}\n+ rbi = {7.26E+00*(2.5/El)**0.7*(4/Nx)}\n+ rbp = {15.0*(2.5/El)**0.7*(4/Nx)}\n+ rs = {1*(2.5/El)*(4/Nx)}\n+ avc1 = 2.40\n+ avc2 = 10.81\n+ tf = {2.31E-13*(El/2.5)**0.15*((temp+273)/300)**0.7}\n+ qtf = 1.00E-18\n+ xtf = 10.0\n+ vtf = 20.0\n+ itf = {1.658*(El/2.5)*(Nx*0.25)}\n+ tr = 5.00E-13\n+ td = '2.8e-13*(El/2.5)'\n+ cth = {4.18E-12*(El/2.5)**0.8*(Nx*0.25)**0.8}\n+ rth = {1.63E+03*(2.5/El)**0.85*(4/Nx)**0.8}\n+ ea = 1.045\n+ eaie = 1.078\n+ eaic = 1.12\n+ eais = 1.12\n+ eane = 1.12\n+ eanc = 1.12\n+ eans = 1.12\n+ xre = -0.42\n+ xrbi = 0.90\n+ xrci = 0.420\n+ xrs = 1.50\n+ xvo = 1.50\n+ xis = 2.30\n+ xii = 3.30\n+ xin = 3.30\n+ tnf = 0.00015\n+ tavc = -0.00188\n+ kfn = {3.00E-9*(2.5/El)*(4/Nx)}\n+ afn = 1.80\n+ bfn = 1.00\nRsub s1 bn {(300+(400*Nx))*(El/2.5)**0.85}\nCsub s1 bn {(1.70E-14-(2.00E-15*Nx))*(El/2.5)**0}\n.ends npn13G2l
